/*--------------------------------*- C++ -*----------------------------------*\
| sCO2 polynomial-fit thermophysicalProperties for case04_chiller gas        |
| region. Generated by `python -m tools.fit_thermo_polynomials`.              |
|                                                                             |
| Method-A path per docs/02_phase2_cfd_rom.md § 2.3: fixed-P polynomial fit  |
| (Wright2010 chiller gas-side P ≈ 7.7 MPa is approximately uniform across   |
| the meshed flow domain; see Wright2010 SAND2010-0171 § 3).                 |
|                                                                             |
| Limits — see docs/known_gaps.md#pche-geometry:                             |
|   - Fit is T-only; pressure variation away from P_fixed is NOT captured.   |
|   - Polynomial degree 7 cannot resolve the pseudo-critical Cp peak; the    |
|     default fit window 320–360 K stays above the sharpest spike (which    |
|     sits near 305–310 K at 7.7 MPa). Wright2010 chiller outlet ≈ 305 K    |
|     is BELOW the fit floor — outlet-side cells need Method B.             |
|   - For T-P-coupled lookup, move to Method B (custom sCO2Thermo class).    |
\*---------------------------------------------------------------------------*/
FoamFile
{
    version     2.0;
    format      ascii;
    class       dictionary;
    location    "constant/gas";
    object      thermophysicalProperties;
}
// * * * * * * * * * * * * * * * * * * * * * * * * * * * * * * * * * * * * //

thermoType
{
    type            heRhoThermo;
    mixture         pureMixture;
    transport       polynomial;
    thermo          hPolynomial;
    equationOfState icoPolynomial;
    specie          specie;
    energy          sensibleEnthalpy;
}

// sCO2 polynomial fit — fixed-P approximation at P = 7.700e+06 Pa.
// Fit window: 320.0 K – 360.0 K.
// rms / rel-max errors:
//   rho: rms=9.661e-04, rel-max=2.104e-05
//   Cp:  rms=9.668e-02, rel-max=1.824e-04
//   mu:  rms=4.541e-11, rel-max=1.068e-05
//   k:   rms=3.114e-07, rel-max=4.463e-05

mixture
{
    specie
    {
        molWeight   44.01;          // g/mol — CO2
    }
    equationOfState
    {
        rhoCoeffs<8>    ( 1.496101e+08 -3.031989e+06 2.633860e+04 -1.271294e+02 3.682140e-01 -6.399495e-04 6.179454e-07 -2.557419e-10 );
    }
    thermodynamics
    {
        Hf              0;
        Sf              0;
        CpCoeffs<8>     ( 1.276997e+10 -2.595022e+08 2.260097e+06 -1.093569e+04 3.174800e+01 -5.530097e-02 5.351395e-05 -2.219274e-08 );
    }
    transport
    {
        muCoeffs<8>     ( 6.817133e+00 -1.382459e-01 1.201662e-03 -5.803425e-06 1.681796e-08 -2.924427e-11 2.825246e-14 -1.169793e-17 );
        kappaCoeffs<8>  ( 4.538935e+04 -9.208908e+02 8.008092e+00 -3.869115e-02 1.121687e-04 -1.951202e-07 1.885702e-10 -7.810424e-14 );
    }
}

// ************************************************************************* //
